Circuit: * D:\-=Navchannya=-\Analogova\Lab_3\model LTC\2N7000_3.asc

WARNING: Node NC_01 is floating.

WARNING: Less than two connections to node NC_01.  This node is used by C2.
Direct Newton iteration for .op point succeeded.

Date: Fri Apr 26 13:08:46 2019
Total elapsed time: 0.040 seconds.

tnom = 27
temp = 27
method = modified trap
totiter = 2091
traniter = 2082
tranpoints = 1042
accept = 1042
rejected = 0
matrix size = 10
fillins = 1
solver = Normal
Matrix Compiler1: 498 bytes object code size  0.1/0.1/[0.1]
Matrix Compiler2: 748 bytes object code size  0.1/0.1/[0.1]

