Circuit: * D:\-=Navchannya=-\Analogova\Lab_3\model LTC\2N7000.asc

.OP point found by inspection.

Date: Thu Apr 25 13:39:21 2019
Total elapsed time: 0.050 seconds.

tnom = 27
temp = 27
method = trap
totiter = 500
traniter = 0
tranpoints = 0
accept = 0
rejected = 0
matrix size = 5
fillins = 0
solver = Normal
Matrix Compiler1:      10 opcodes  0.1/[0.0]/0.0
Matrix Compiler2: 349 bytes object code size  0.0/0.1/[0.0]

