Circuit: * D:\-=Navchannya=-\Analogova\Lab_4\lab4.asc

Direct Newton iteration for .op point succeeded.

Date: Thu May 23 21:51:23 2019
Total elapsed time: 0.111 seconds.

tnom = 27
temp = 27
method = modified trap
totiter = 2587
traniter = 2577
tranpoints = 1180
accept = 1111
rejected = 69
matrix size = 10
fillins = 0
solver = Normal
Matrix Compiler1: 560 bytes object code size  0.1/0.1/[0.1]
Matrix Compiler2: off  [0.1]/0.1/0.1

